New Loadshape.Shape_1 npts=288 interval=0.0833 mult=(file=Load1_5min.csv) useactual=false
New Loadshape.Shape_2 npts=288 interval=0.0833 mult=(file=Load2_5min.csv) useactual=false
New Loadshape.Shape_3 npts=288 interval=0.0833 mult=(file=Load3_5min.csv) useactual=false
New Loadshape.Shape_4 npts=288 interval=0.0833 mult=(file=Load4_5min.csv) useactual=false
New Loadshape.Shape_5 npts=288 interval=0.0833 mult=(file=Load5_5min.csv) useactual=false
New Loadshape.Shape_6 npts=288 interval=0.0833 mult=(file=Load6_5min.csv) useactual=false
New Loadshape.Shape_7 npts=288 interval=0.0833 mult=(file=Load7_5min.csv) useactual=false
New Loadshape.Shape_8 npts=288 interval=0.0833 mult=(file=Load8_5min.csv) useactual=false
New Loadshape.Shape_9 npts=288 interval=0.0833 mult=(file=Load9_5min.csv) useactual=false
New Loadshape.Shape_10 npts=288 interval=0.0833 mult=(file=Load10_5min.csv) useactual=false
New Loadshape.Shape_11 npts=288 interval=0.0833 mult=(file=Load11_5min.csv) useactual=false
New Loadshape.Shape_12 npts=288 interval=0.0833 mult=(file=Load12_5min.csv) useactual=false
New Loadshape.Shape_13 npts=288 interval=0.0833 mult=(file=Load13_5min.csv) useactual=false
New Loadshape.Shape_14 npts=288 interval=0.0833 mult=(file=Load14_5min.csv) useactual=false
New Loadshape.Shape_15 npts=288 interval=0.0833 mult=(file=Load15_5min.csv) useactual=false
New Loadshape.Shape_16 npts=288 interval=0.0833 mult=(file=Load16_5min.csv) useactual=false
New Loadshape.Shape_17 npts=288 interval=0.0833 mult=(file=Load17_5min.csv) useactual=false
New Loadshape.Shape_18 npts=288 interval=0.0833 mult=(file=Load18_5min.csv) useactual=false
New Loadshape.Shape_19 npts=288 interval=0.0833 mult=(file=Load19_5min.csv) useactual=false
New Loadshape.Shape_20 npts=288 interval=0.0833 mult=(file=Load20_5min.csv) useactual=false
New Loadshape.Shape_21 npts=288 interval=0.0833 mult=(file=Load21_5min.csv) useactual=false
New Loadshape.Shape_22 npts=288 interval=0.0833 mult=(file=Load22_5min.csv) useactual=false
New Loadshape.Shape_23 npts=288 interval=0.0833 mult=(file=Load23_5min.csv) useactual=false
New Loadshape.Shape_24 npts=288 interval=0.0833 mult=(file=Load24_5min.csv) useactual=false
New Loadshape.Shape_25 npts=288 interval=0.0833 mult=(file=Load25_5min.csv) useactual=false
New Loadshape.Shape_26 npts=288 interval=0.0833 mult=(file=Load26_5min.csv) useactual=false
New Loadshape.Shape_27 npts=288 interval=0.0833 mult=(file=Load27_5min.csv) useactual=false
New Loadshape.Shape_28 npts=288 interval=0.0833 mult=(file=Load28_5min.csv) useactual=false
New Loadshape.Shape_29 npts=288 interval=0.0833 mult=(file=Load29_5min.csv) useactual=false
New Loadshape.Shape_30 npts=288 interval=0.0833 mult=(file=Load30_5min.csv) useactual=false
New Loadshape.Shape_31 npts=288 interval=0.0833 mult=(file=Load31_5min.csv) useactual=false
New Loadshape.Shape_32 npts=288 interval=0.0833 mult=(file=Load32_5min.csv) useactual=false
New Loadshape.Shape_33 npts=288 interval=0.0833 mult=(file=Load33_5min.csv) useactual=false
New Loadshape.Shape_34 npts=288 interval=0.0833 mult=(file=Load34_5min.csv) useactual=false
New Loadshape.Shape_35 npts=288 interval=0.0833 mult=(file=Load35_5min.csv) useactual=false
New Loadshape.Shape_36 npts=288 interval=0.0833 mult=(file=Load36_5min.csv) useactual=false
New Loadshape.Shape_37 npts=288 interval=0.0833 mult=(file=Load37_5min.csv) useactual=false
New Loadshape.Shape_38 npts=288 interval=0.0833 mult=(file=Load38_5min.csv) useactual=false
New Loadshape.Shape_39 npts=288 interval=0.0833 mult=(file=Load39_5min.csv) useactual=false
New Loadshape.Shape_40 npts=288 interval=0.0833 mult=(file=Load40_5min.csv) useactual=false
New Loadshape.Shape_41 npts=288 interval=0.0833 mult=(file=Load41_5min.csv) useactual=false
New Loadshape.Shape_42 npts=288 interval=0.0833 mult=(file=Load42_5min.csv) useactual=false
New Loadshape.Shape_43 npts=288 interval=0.0833 mult=(file=Load43_5min.csv) useactual=false
New Loadshape.Shape_44 npts=288 interval=0.0833 mult=(file=Load44_5min.csv) useactual=false
New Loadshape.Shape_45 npts=288 interval=0.0833 mult=(file=Load45_5min.csv) useactual=false
New Loadshape.Shape_46 npts=288 interval=0.0833 mult=(file=Load46_5min.csv) useactual=false
New Loadshape.Shape_47 npts=288 interval=0.0833 mult=(file=Load47_5min.csv) useactual=false
New Loadshape.Shape_48 npts=288 interval=0.0833 mult=(file=Load48_5min.csv) useactual=false
New Loadshape.Shape_49 npts=288 interval=0.0833 mult=(file=Load49_5min.csv) useactual=false
New Loadshape.Shape_50 npts=288 interval=0.0833 mult=(file=Load50_5min.csv) useactual=false
New Loadshape.Shape_51 npts=288 interval=0.0833 mult=(file=Load51_5min.csv) useactual=false
New Loadshape.Shape_52 npts=288 interval=0.0833 mult=(file=Load52_5min.csv) useactual=false
New Loadshape.Shape_53 npts=288 interval=0.0833 mult=(file=Load53_5min.csv) useactual=false
New Loadshape.Shape_54 npts=288 interval=0.0833 mult=(file=Load54_5min.csv) useactual=false
New Loadshape.Shape_55 npts=288 interval=0.0833 mult=(file=Load55_5min.csv) useactual=false
